[TITLE]
;;Project Title/Notes
NOAH project
Rakvere pilot area 14.05.2020
Calibrated on the basis of
Väike-Maarja_1 and Väike_Maarja_2

[OPTIONS]
;;Option             Value
FLOW_UNITS           LPS
INFILTRATION         HORTON
FLOW_ROUTING         DYNWAVE
LINK_OFFSETS         ELEVATION
MIN_SLOPE            0
ALLOW_PONDING        YES
SKIP_STEADY_STATE    NO

IGNORE_SNOWMELT      YES
START_DATE           05/01/2016
START_TIME           00:00:00
REPORT_START_DATE    05/01/2016
REPORT_START_TIME    00:00:00
END_DATE             05/01/2016
END_TIME             05:00:00
SWEEP_START          01/01
SWEEP_END            12/31
DRY_DAYS             0
REPORT_STEP          00:10:00
WET_STEP             00:10:00
DRY_STEP             00:10:00
ROUTING_STEP         0:00:30 
RULE_STEP            00:00:00

INERTIAL_DAMPING     PARTIAL
NORMAL_FLOW_LIMITED  BOTH
FORCE_MAIN_EQUATION  H-W
VARIABLE_STEP        0.75
LENGTHENING_STEP     0
MIN_SURFAREA         1.167
MAX_TRIALS           10
HEAD_TOLERANCE       0.1
SYS_FLOW_TOL         5
LAT_FLOW_TOL         5
MINIMUM_STEP         1.5
THREADS              1

[EVAPORATION]
;;Data Source    Parameters
;;-------------- ----------------
CONSTANT         0.5
DRY_ONLY         NO

[RAINGAGES]
;;Name           Format    Interval SCF      Source    
;;-------------- --------- ------ ------ ----------
G-1              INTENSITY 0:10     1.0      TIMESERIES Rakvere_precipitation

[SUBCATCHMENTS]
;;Name           Rain Gage        Outlet           Area     %Imperv  Width    %Slope   CurbLen  SnowPack        
;;-------------- ---------------- ---------------- -------- -------- -------- -------- -------- ----------------
s1               G-1              1                0.0275   10       16.58312395 1.146954545 5                        
s2               G-1              2                0.015    70       12.24744871 0.950916667 5                        
s3               G-1              3                0.1475   35.93220339 38.40572874 1.502623729 5                        
s4               G-1              4                0.1375   13.27272727 37.08099244 1.804669091 5                        
s5               G-1              5                0.0225   60       15       1.233188889 5                        
s6               G-1              6                0.0125   82       11.18033989 0.57672  5                        
s7               G-1              7                0.0525   52.85714286 22.91287847 1.908304762 5                        
s8               G-1              8                0.05     46       22.36067977 1.84041  5                        
s9               G-1              9                0.04     100      20       1.72864375 5                        
s10              G-1              10               0.0275   83.63636364 16.58312395 1.236581818 5                        
s11              G-1              11               0.295    27.54237288 54.31390246 2.884144915 5                        
s12              G-1              12               0.6425   23.307393 80.15609771 2.257185603 5                        
s13              G-1              13               0.0125   64       11.18033989 0.9197   5                        
s14              G-1              14               0.4075   69.63190184 63.83572667 2.974376074 5                        
s15              G-1              15               0.065    89.61538462 25.49509757 0.906288462 5                        
s16              G-1              16               0.0725   93.79310345 26.92582404 1.25102069 5                        
s17              G-1              17               0.0275   75.45454545 16.58312395 2.101845455 5                        
s18              G-1              18               0.035    100      18.70828693 1.027942857 5                        
s19              G-1              19               0.0275   75.45454545 16.58312395 1.383327273 5                        
s20              G-1              20               0.01     77.5     10       2.14625  5                        
s21              G-1              21               0.0125   46       11.18033989 1.219    5                        
s22              G-1              22               0.1175   69.36170213 34.278273 1.610825532 5                        
s23              G-1              23               0.02     88.75    14.14213562 0.956075 5                        
s24              G-1              24               0.0125   46       11.18033989 4.26782  5                        
s25              G-1              25               0.0075   40       8.660254038 2.660233333 5                        
s26              G-1              26               0.035    35.71428571 18.70828693 4.645957143 5                        
s27              G-1              27               0.07     35.71428571 26.45751311 1.23495  5                        
s28              G-1              28               0.03     55       17.32050808 2.2518   5                        
s29              G-1              29               0.0325   51.53846154 18.02775638 3.475869231 5                        
s30              G-1              30               0.1625   33.53846154 40.31128874 2.582481538 5                        
s31              G-1              31               0.05     50.5     22.36067977 1.566615 5                        
s32              G-1              32               0.015    100      12.24744871 1.414183333 5                        
s33              G-1              33               0.0125   64       11.18033989 1.38054  5                        
s34              G-1              34               0.015    55       12.24744871 1.204783333 5                        
s35              G-1              35               0.145    36.37931034 38.07886553 1.808905172 5                        
s36              G-1              36               0.0675   86.66666667 25.98076211 3.035114815 5                        
s37              G-1              37               0.03     62.5     17.32050808 2.204483333 5                        
s38              G-1              38               0.005    55       7.071067812 1.38575  5                        
s39              G-1              40               0.14     71.07142857 37.41657387 1.493435714 5                        
s40              G-1              41               0.0275   91.81818182 16.58312395 1.727445455 5                        
s41              G-1              42               0.045    100      21.21320344 2.773822222 5                        
s42              G-1              5242             0.915    40.98360656 95.65563235 3.593706557 5                        
s43              G-1              5243             0.0525   100      22.91287847 1.635290476 5                        
s44              G-1              5244             0.105    100      32.40370349 1.288964286 5                        
s45              G-1              5245             0.335    93.95522388 57.87918451 0.979773134 5                        
s46              G-1              5501             0.745    63.45637584 86.31338251 1.087097315 5                        
s47              G-1              5502             0.1775   31.54929577 42.13074887 1.52736338 5                        
s48              G-1              5504             0.045    55       21.21320344 1.546661111 5                        
s49              G-1              5506             0.045    75       21.21320344 1.696177778 5                        
s50              G-1              5507             0.095    55       30.82207001 1.6462   5                        
s51              G-1              5508             0.1375   67.27272727 37.08099244 3.032714545 5                        
s52              G-1              5511             0.435    68.96551724 65.95452979 1.994197126 5                        
s53              G-1              5512             0.015    85       12.24744871 2.689466667 5                        
s54              G-1              5513             0.0425   100      20.61552813 1.358617647 5                        
s55              G-1              5514             0.0575   56.95652174 23.97915762 1.717621739 5                        
s56              G-1              5519             0.1025   40.73170732 32.01562119 3.171346341 5                        
s57              G-1              5514             2.5325   37.27541955 159.1383046 1.966215795 5                        
s58              G-1              5521             0.1175   63.61702128 34.278273 1.574208511 5                        
s59              G-1              5522             0.025    73       15.8113883 2.92733  5                        
s60              G-1              5599             0.67     52.64925373 81.85352772 1.572104478 5                        
s61              G-1              5601             0.045    85       21.21320344 1.29585  5                        
s62              G-1              5606             0.755    39.20529801 86.89073598 2.981207616 5                        
s63              G-1              5607             0.085    65.58823529 29.15475947 1.282532353 5                        
s64              G-1              5612             0.14     58.21428571 37.41657387 1.137875 5                        
s65              G-1              5616             0.42     42.14285714 64.80740698 3.916320833 5                        
s66              G-1              5617             1.3525   41.1922366 116.2970335 4.868777079 5                        
s67              G-1              5618             0.0425   84.11764706 20.61552813 1.249482353 5                        
s68              G-1              5619             0.03     40       17.32050808 2.110333333 5                        
s69              G-1              5626             0.0125   100      11.18033989 0.94056  5                        
s70              G-1              5628             0.015    100      12.24744871 0.706566667 5                        
s71              G-1              5684             0.0425   78.82352941 20.61552813 2.480370588 5                        
s72              G-1              5691             0.015    70       12.24744871 0.666133333 5                        
s73              G-1              5692             0.87     30.94827586 93.27379053 1.994423563 5                        
s74              G-1              5700             0.1825   33.42465753 42.72001873 1.948856164 5                        
s75              G-1              5703             0.0275   26.36363636 16.58312395 1.728863636 5                        
s76              G-1              5704             0.03     70       17.32050808 1.821308333 5                        
s77              G-1              5805             0.0075   70       8.660254038 2.585366667 5                        
s78              G-1              5806             0.025    82       15.8113883 1.08992  5                        
s79              G-1              5810             0.03     92.5     17.32050808 1.251408333 5                        
s80              G-1              5811             0.5475   71.23287671 73.99324293 2.222997717 5                        
s81              G-1              5816             0.06     100      24.49489743 1.0766875 5                        
s82              G-1              5817             0.0425   100      20.61552813 1.319335294 5                        
s83              G-1              5821             0.02     88.75    14.14213562 1.45225  5                        
s84              G-1              5822             0.0275   100      16.58312395 1.122109091 5                        
s85              G-1              5823             0.03     32.5     17.32050808 1.652316667 5                        
s86              G-1              5832             2.275    67.85714286 150.8310313 2.176443846 5                        
s87              G-1              5835             0.0325   72.30769231 18.02775638 1.462176923 5                        
s88              G-1              5837             0.015    55       12.24744871 1.7027   5                        
s89              G-1              5840             0.0225   100      15       1.792755556 5                        
s90              G-1              5895             0.22     20.22727273 46.9041576 3.014396591 5                        
s91              G-1              5896             0.09     10       30       3.660341667 5                        
s92              G-1              5902             0.0225   70       15       0.894    5                        
s93              G-1              5904             0.02     43.75    14.14213562 0.6277875 5                        
s94              G-1              6154             0.0525   74.28571429 22.91287847 0.69497619 5                        
s95              G-1              6157             0.0125   82       11.18033989 1.32936  5                        
s96              G-1              6158             0.0275   59.09090909 16.58312395 1.188245455 5                        
s97              G-1              6161             0.025    82       15.8113883 1.77511  5                        
s98              G-1              6162             0.01     55       10       1.491625 5                        
s99              G-1              6163             0.0275   75.45454545 16.58312395 1.489281818 5                        
s100             G-1              6166             0.0225   70       15       1.814833333 5                        
s101             G-1              6167             0.025    91       15.8113883 2.72389  5                        
s102             G-1              6171             0.18     26.25    42.42640687 1.762894444 5                        
s103             G-1              6175             0.0725   53.44827586 26.92582404 1.371906897 5                        
s104             G-1              6176             0.0225   90       15       1.497933333 5                        
s105             G-1              6179             0.0225   90       15       1.799355556 5                        
s106             G-1              6180             0.0125   82       11.18033989 1.70938  5                        
s107             G-1              6181             0.0225   90       15       1.749888889 5                        
s108             G-1              6185             0.025    100      15.8113883 1.77393  5                        
s109             G-1              6186             0.0325   100      18.02775638 2.0872   5                        
s110             G-1              6188             0.065    58.46153846 25.49509757 1.989080769 5                        
s111             G-1              6189             0.015    100      12.24744871 1.154    5                        
s112             G-1              6193             0.0225   70       15       1.464522222 5                        
s113             G-1              6194             0.0225   80       15       0.774355556 5                        
s114             G-1              6198             0.025    91       15.8113883 0.97745  5                        
s115             G-1              6199             0.0425   73.52941176 20.61552813 1.289588235 5                        
s116             G-1              6201             0.075    73       27.38612788 1.3359   5                        
s117             G-1              6203             0.0275   100      16.58312395 1.139918182 5                        
s118             G-1              6204             0.0075   70       8.660254038 1.280233333 5                        
s119             G-1              6205             0.0425   68.23529412 20.61552813 0.772347059 5                        
s120             G-1              6206             0.1925   34.54545455 43.87482194 1.181838961 5                        
s121             G-1              6207             0.0425   84.11764706 20.61552813 1.439911765 5                        
s122             G-1              6208             0.145    51.89655172 38.07886553 1.569939655 5                        
s123             G-1              6212             0.04     60.625   20       1.9139375 5                        
s124             G-1              6213             0.18     25       42.42640687 1.82495  5                        
s125             G-1              6218             0.025    91       15.8113883 1.02364  5                        
s126             G-1              6219             0.0225   100      15       1.023877778 5                        
s127             G-1              6220             0.1225   32.04081633 35       2.385522449 5                        
s128             G-1              6221             0.0225   70       15       2.6552   5                        
s129             G-1              7496             0.0475   24.21052632 21.79449472 3.167236842 5                        
s130             G-1              7498             0.155    23.06451613 39.37003937 1.884214516 5                        
s131             G-1              7499             0.045    95       21.21320344 2.420188889 5                        
s132             G-1              7500             0.03     17.5     17.32050808 2.295025 5                        
s133             G-1              8024             0.0125   64       11.18033989 2.16384  5                        
s134             G-1              8025             0.03     85       17.32050808 3.280366667 5                        
s135             G-1              8026             0.0125   46       11.18033989 6.03174  5                        
s136             G-1              8191             0.13     75.76923077 36.05551275 1.650707692 5                        
s137             G-1              8192             0.025    73       15.8113883 2.12126  5                        
s138             G-1              8194             0.0225   100      15       0.702688889 5                        
s139             G-1              8195             0.0175   61.42857143 13.22875656 1.986457143 5                        
s140             G-1              8197             0.0975   40       31.22498999 0.856858974 5                        
s141             G-1              8198             0.035    100      18.70828693 0.884607143 5                        
s142             G-1              8199             0.045    80       21.21320344 0.889705556 5                        
s143             G-1              8200             0.5725   37.51091703 75.66372975 2.546486463 5                        
s144             G-1              8201             0.075    97       27.38612788 1.062726667 5                        
s145             G-1              8347             0.0275   100      16.58312395 0.967927273 5                        
s146             G-1              8348             0.0075   100      8.660254038 1.566966667 5                        
s147             G-1              8349             0.02     77.5     14.14213562 0.7538875 5                        
s148             G-1              8362             0.0625   77.2     25       1.990572 5                        
s149             G-1              8363             0.0225   90       15       0.901933333 5                        
s150             G-1              8364             0.025    82       15.8113883 1.42351  5                        
s151             G-1              8365             0.0225   80       15       1.735177778 5                        
s152             G-1              8366             0.0225   100      15       1.3782   5                        
s153             G-1              8367             0.0025   100      5        0.782    5                        
s154             G-1              8368             0.0225   100      15       1.042911111 5                        
s155             G-1              8369             0.025    91       15.8113883 1.55713  5                        
s156             G-1              8370             0.0225   80       15       1.707011111 5                        
s157             G-1              8371             0.0175   61.42857143 13.22875656 1.954328571 5                        
s158             G-1              8374             0.0225   80       15       1.266722222 5                        
s159             G-1              8375             0.0075   100      8.660254038 1.8039   5                        
s160             G-1              8376             0.0175   74.28571429 13.22875656 1.627085714 5                        
s161             G-1              8377             0.0225   80       15       1.129866667 5                        
s162             G-1              8378             0.0175   61.42857143 13.22875656 0.464557143 5                        
s163             G-1              8380             0.0175   100      13.22875656 0.649385714 5                        
s164             G-1              8381             0.0225   90       15       0.896    5                        
s165             G-1              8397             0.03     62.5     17.32050808 0.749233333 5                        
s166             G-1              8398             0.12     21.25    34.64101615 1.9218125 5                        
s167             G-1              8400             0.1025   29.75609756 32.01562119 2.219492683 5                        
s168             G-1              8401             0.0225   70       15       1.126411111 5                        
s169             G-1              8402             0.0225   90       15       2.003922222 5                        
s170             G-1              8403             0.0175   74.28571429 13.22875656 1.724971429 5                        
s171             G-1              8404             0.0275   75.45454545 16.58312395 2.491709091 5                        
s172             G-1              8405             0.18     36.25    42.42640687 1.749920833 5                        
s173             G-1              8406             0.0875   46       29.58039892 1.912971429 5                        
s174             G-1              8424             0.115    23.69565217 33.91164992 2.446943478 5                        
s175             G-1              8425             0.03     55       17.32050808 1.854875 5                        
s176             G-1              8426             0.0125   64       11.18033989 1.41158  5                        
s177             G-1              8427             0.0225   70       15       1.512666667 5                        
s178             G-1              8428             0.0225   80       15       1.541855556 5                        
s179             G-1              8429             0.025    64       15.8113883 1.91197  5                        
s180             G-1              8430             0.0325   65.38461538 18.02775638 1.016130769 5                        
s181             G-1              8431             0.0425   62.94117647 20.61552813 2.278652941 5                        
s182             G-1              8450             0.0425   47.05882353 20.61552813 1.420088235 5                        
s183             G-1              8451             0.0275   75.45454545 16.58312395 1.758645455 5                        
s184             G-1              8454             0.0125   46       11.18033989 1.82598  5                        
s185             G-1              8455             0.0375   40       19.36491673 1.728726667 5                        
s186             G-1              8457             0.0075   70       8.660254038 1.921633333 5                        
s187             G-1              8458             0.0225   50       15       1.646022222 5                        
s188             G-1              8459             0.0425   47.05882353 20.61552813 1.173223529 5                        
s189             G-1              8460             0.0475   38.42105263 21.79449472 1.264052632 5                        
s190             G-1              8461             0.0325   65.38461538 18.02775638 1.326969231 5                        
s191             G-1              8462             0.0225   30       15       1.3016   5                        
s192             G-1              8463             0.04     71.875   20       1.27029375 5                        
s193             G-1              9850             0.0425   100      20.61552813 1.1567   5                        
s194             G-1              9851             0.045    100      21.21320344 1.309072222 5                        
s195             G-1              9852             0.0225   100      15       1.201088889 5                        
s196             G-1              9854             0.22     100      46.9041576 2.095810227 5                        
s197             G-1              9859             0.06     88.75    24.49489743 2.361533333 5                        
s198             G-1              9862             0.0425   84.11764706 20.61552813 2.021170588 5                        
s199             G-1              9922             0.0225   80       15       1.720588889 5                        
s200             G-1              9923             0.005    100      7.071067812 0.46275  5                        
s201             G-1              9924             0.1675   43.58208955 40.92676386 1.417419403 5                        
s202             G-1              9925             0.295    17.62711864 54.31390246 1.533739831 5                        
s203             G-1              9927             0.235    67.44680851 48.47679857 1.60621383 5                        
s204             G-1              9928             0.0425   100      20.61552813 0.902911765 5                        
s205             G-1              9930             0.045    95       21.21320344 1.62655  5                        
s206             G-1              9932             0.4325   52.13872832 65.76473219 1.526683815 5                        
s207             G-1              9938             0.075    64       27.38612788 1.789603333 5                        
s208             G-1              9940             0.0075   100      8.660254038 1.8029   5                        
s209             G-1              9941             0.0125   82       11.18033989 1.24728  5                        
s210             G-1              9942             0.235    49.25531915 48.47679857 1.476728723 5                        
s211             G-1              9943             0.065    100      25.49509757 2.363188462 5                        
s212             G-1              9948             0.91     72.30769231 95.39392014 1.932186264 5                        
s213             G-1              9952             0.0825   97.27272727 28.72281323 1.523433333 5                        
s214             G-1              9955             0.25     85.6     50       1.210022 5                        
s215             G-1              10755            0.025    100      15.8113883 0.90072  5                        
s216             G-1              10756            0.0225   90       15       1.307    5                        
s217             G-1              10759            0.0175   87.14285714 13.22875656 1.613742857 5                        
s218             G-1              10760            0.0275   83.63636364 16.58312395 1.245863636 5                        
s219             G-1              10764            0.02     77.5     14.14213562 1.2352625 5                        
s220             G-1              10784            0.0275   100      16.58312395 1.692972727 5                        
s221             G-1              10799            0.0425   68.23529412 20.61552813 1.662870588 5                        
s222             G-1              10800            0.02     43.75    14.14213562 1.4847875 5                        
s223             G-1              10801            0.03     85       17.32050808 1.286741667 5                        
s224             G-1              10802            0.0175   61.42857143 13.22875656 1.495171429 5                        
s225             G-1              10803            0.0225   70       15       0.887522222 5                        
s226             G-1              10805            0.025    64       15.8113883 0.64151  5                        
s227             G-1              10807            0.025    64       15.8113883 0.89915  5                        
s228             G-1              10808            0.0225   70       15       1.179311111 5                        
s229             G-1              10809            0.0075   40       8.660254038 1.082633333 5                        
s230             G-1              10810            0.0225   70       15       1.836622222 5                        
s231             G-1              10811            0.0175   61.42857143 13.22875656 2.105957143 5                        
s232             G-1              10812            0.0225   80       15       1.314344444 5                        
s233             G-1              10813            0.0275   50.90909091 16.58312395 0.741090909 5                        
s234             G-1              10814            0.035    80.71428571 18.70828693 1.196714286 5                        
s235             G-1              10815            0.0225   70       15       0.853855556 5                        
s236             G-1              10981            0.0225   70       15       1.452844444 5                        